<?xml version="1.0" encoding="UTF-8"?>
   
<routes>
    <vType id="Bus" length="13.0" minGap="0.25" vClass="bus" departLane="random" maxSpeed="17.67" speedFactor="0.80" speedDev="0.25" accel="5.0" decel="7.5" emergencyDecel="10.0"/>
    <vType id="Car" length="5.0" minGap="0.20" vClass="passenger" departLane="random" maxSpeed="19.5" speedFactor="0.90" speedDev="0.25" accel="4.5" decel="6.5" emergencyDecel="9.0"/>
    <vType id="Taxi" length="5.0" minGap="0.20" vClass="passenger" departLane="random" maxSpeed="19.5" speedFactor="0.95" speedDev="0.25" accel="4.5" decel="6.5" emergencyDecel="9.0"/>
    <vType id="Moto" length="2.5" minGap="0.20" vClass="motorcycle" departLane="random" maxSpeed="19.5" speedFactor="0.90" speedDev="0.25" accel="4.5" decel="6.0" emergencyDecel="8.0"/>
    <vType id="Truck" length="8.0" minGap="0.25" vClass="truck" departLane="random" maxSpeed="17.67" speedFactor="0.80" speedDev="0.25" accel="4.9" decel="7.2" emergencyDecel="9.8"/>
    <vType id="Trail" length="15.0" minGap="0.25" vClass="trailer" departLane="random" maxSpeed="17.67" speedFactor="0.80" speedDev="0.25" accel="5.0" decel="7.5" emergencyDecel="10.5"/>
    <vType id="Other" length="7.0" minGap="0.20" vClass="custom1" departLane="random" maxSpeed="19.5" speedFactor="0.90" speedDev="0.25" accel="4.5" decel="7.0" emergencyDecel="9.5"/>
    <vType id="Machinery" length="8.0" minGap="0.30" vClass="custom1" departLane="random" maxSpeed="17.67" speedFactor="0.80" speedDev="0.25" accel="4.9" decel="7.5" emergencyDecel="10.2"/>
    <route id="Col-B4Redon1" edges="i18 i17 i16 i15 i14 i13 i12 i11 i10 i9 i8 i7 i6 i5 i4 i3 i2 i2b"/>
    <route id="Col-B4Redon2" edges="i16a i16 i15 i14 i13 i12 i11 i10 i9 i8 i7 i6 i5"/>
    <route id="Col-B4Redon3" edges="i12 i11 i10 i9 i8 i7 i6 i5"/>
    <route id="Col-Panam1" edges="i18 i17 i16 i15 i14 i13 i12 i11 i10 i9 i8 i7 i6 i5 i4 i3 i2 i1 u2 h1 h2 h3 h4 h5 h6 h7 h8 h9 h10 h10a"/>
    <route id="Col-Panam2" edges="i16a i16 i15 i14 i13 i12 i11 i10 i9 i8 i7 i6 i5 i4 i3 i2 i1 u2 h1 h1a "/>
    <route id="Col-Panam3" edges="i15a i15 i14 i13 i12 i11 i10 i9 i8 i7 i6 i5 i4 i3 i2 i1 u2 h1 h2"/>
    <route id="Col-Termi1" edges="i18 i17 i16 i15 i14 i13 i12 i11 i10 i9 i8 i7 i6 i5 i4 i3 i2 i1 u2 u3 u4 j1 j2 j3 j4 j5 j6 j7 j8 j9 j10 j11 j12 j13 j14 j15 j16 j17 j18 j19 j20 j21 j22 j23"/>
    <route id="Col-Termi2" edges="i16a i16 i15 i14 i13 i12 i11 i10 i9 i8 i7 i6 i5 i4 i3 i2 i1 u2 u3 u4 j1 j2 j3 j4 j5 j6 j7 j8a j9a j10a"/>
    <route id="Col-Termi3" edges="i12b i11 i10 i9 i8 i7 i6 i5 i4 i3 i2 i1 u2 u3 u4 j1 j2 j3 j4 j5 j6 j7 j8 j9 j10 j11 j12 j13 j14 j14a"/>
    <route id="Col-Redon-Merc1" edges="i18 i17 i16 i15 i14 i13 i12 i11 i10 i9 i8 i7 i6 i5 i4 i3 i2 i1 u2 u3 u4 u5 u6 g1 g2 g3 g4 g5 g6 g7 g8 g9 g10 g11 g12 g13a g14a g15a k1 k2 k3 k4 k5 k6 k7"/>
    <route id="Col-Redon-Merc2" edges="i13a i12 i11 i10 i9 i8 i7 i6 i5 i4 i3 i2 i1 u2 u3 u4 u5 u6 g1 g2 g3 g4 g5 g6 g7 g8 g9 g10 g11 g12 g13a g14a g15a k1 k2 k3 k4 k5 k6 k7"/>
    <route id="Col-Redon-Merc3" edges="i12b i11 i10 i9 i8 i7 i6 i5 i4 i3 i2 i1 u2 u3 u4 u5 u6 g1 g2 g3 g4 g5 g6 g7 g8 g9 g10 g11 g12 g13a g14a g15a k1 k2 k3 k4 k5"/>
    <route id="Col-Redon-Obel1" edges="i16a i16 i15 i14 i13 i12 i11 i10 i9 i8 i7 i6 i5 i4 i3 i2 i1 u2 u3 u4 u5 u6 g1 g2 g3 g4 g5 g6 g7 g8 g9 g10 g11 g12 g13 g14 g15 g16 g17 g18 g19 g20 g21 g22 y6 y5 y4 v1 v0 v0b"/>
    <route id="Col-Redon-Obel2" edges="i14a i13 i12 i11 i10 i9 i8 i7 i6 i5 i4 i3 i2 i1 u2 u3 u4 u5 u6 g1 g2 g3 g4 g5 g6 g7 g8 g9 g10 g11 g12 g13 g14 g15 g16 g17 g18 g19 g19a"/>
    <route id="Col-Redon-Obel3" edges="i13a i12 i11 i10 i9 i8 i7 i6 i5 i4 i3 i2 i1 u2 u3 u4 u5 u6 g1 g2 g3 g4 g5 g6 g7 g8 g9 g10 g11 g12 g13 g14 g15 g16 g17 g18"/>
    <route id="Merc-Fray-Panam1" edges="c3d c3c c3b c3a c3 c4 c5 c6 c7 c8 c9 c10 c11 c12 c13 c14 c15 c16 c17 c18 i9 i8 i7 i6 i5 i4 i3 i2 i1 u2 h1 h2 h3 h4 h5 h6 h7 h8 h9 h10 h10a"/>
    <route id="Merc-Fray-Panam2" edges="c0g c0f c0e c0d c0c c0b c0a c1 c2 c3 c4 c5 c6 c7 c8 c9 c10 c11 c12 c13 c14 c15 c16 c17 c18 i9 i8 i7 i6 i5 i4 i3 i2 i1 u2 h1 h1a"/>
    <route id="Merc-Fray-Panam3" edges="c3 c4 c5 c6 c7 c8 c9 c10 c11 c12 c13 c14 c15 c16 c17 c18 i9 i8 i7 i6"/>
    <route id="Mari-Fray-Redon-Panam1" edges="g4 g5 g6 g7 g8 g9 g10 g11 g12 g13 g14 g15 g16 c9 c10 c11 c12 c13 c14 c15 c16 c17 c18 i9 i8 i7 i6 i5 i4 i3 i2 i1 u2 h1 h2 h3 h4 h5 h6 h7 h8 h9 h10"/>
    <route id="Mari-Fray-Redon-Panam2" edges="g7 g8 g9 g10 g11 g12 g13 g14 g15 g16 c9 c10 c11 c12 c13 c14 c15 c16 c17 c18 i9 i8 i7 i6 i5 i4 i3 i2 i1 u2 h1 h1a"/>
    <route id="Mari-Fray-Redon-Panam3" edges="g10 g11 g12 g13 g14 g15 g16 c9 c10 c11 c12 c13 c14 c15 c16 c17 c18 i9 i8 i7 i6 i5 i4 i3 i2 i1 u2 h1 h2 h3"/>
    <route id="Mari-Redon-Panam1" edges="a13 a14 a15 a16 a17 a18 a19 a20 a21 u1 u2 h1 h2 h3 h4 h5 h6 h7 h8 h9 h10"/>
    <route id="Mari-Redon-Panam2" edges="a14 a15 a16 a17 a18 a19 a20 a21 u1 u2 h1 h2 h3 h4 h5 h6 h7 h8 h9 h3 h4"/>
    <route id="Mari-Redon-Panam3" edges="a19a a19 a20 a21 u1 u2 h1 h2 h3 h4 h5 h6 h7 h8 h9 h1 h2"/>
    <route id="Mari-Redon-Termi1" edges="a13 a14 a15 a16 a17 a18 a19 a20 a21 u1 u2 u3 u4 j1 j2 j3 j4 j5 j6 j7 j8 j9 j10 j11 j12 j13 j14 j15 j16 j17"/>
    <route id="Mari-Redon-Termi2" edges="a14 a15 a16 a17 a18 a19 a20 a21 u1 u2 u3 u4 j1 j2 j3 j4 j5 j6 j7 j8 j9 j10 j11 j12"/>
    <route id="Mari-Redon-Termi3" edges="a19a a19 a20 a21 u1 u2 u3 u4 j1 j2 j3 j4 j5 j6 j7"/>
    <route id="Mari-Redon-Yach1" edges="a13 a14 a15 a16 a17 a18 a19 a20 a21a e2 e3 e4 e5 e6 e7 e8 e9 c18 c19 c20 c21 c22 c23 c24 c25 c26"/>
    <route id="Mari-Redon-Yach2" edges="a14 a15 a16 a17 a18 a19 a20 a21a e2 e3 e4 e5 e6 e7 e8 e9 c18 c19 c20 c21 c22"/>
    <route id="Mari-Redon-Yach3" edges="a19a a19 a20 a21a e2 e3 e4 e5 e6 e7 e8 e9 c18 c19 c20"/>
    <route id="Mari-Redon-Col1" edges="a13 a14 a15 a16 a17 a18 a19 a20 a21a e2 e3 e4 e5 e6 e7 e8 e9 e10 e11 e12 e13 e14 e15 e16 e17 e18 e19 e20 e21 e22"/>
    <route id="Mari-Redon-Col2" edges="a16 a17 a18 a19 a20 a21a e2 e3 e4 e5 e6 e7 e8 e9 e10 e11 e12 e13 e14 e15 e16 e17 e18"/>
    <route id="Mari-Redon-Col3" edges="a19a a19 a20 a21a e2 e3 e4 e5 e6 e7 e8 e9 e10 e11 e12 e13"/>
    <route id="Mari-Fray-B4Redon1" edges="g5 g6 g7 g8 g9 g10 g11 g12 g13 g14 g15 g16 c9 c10 c11 c12 c13 c14 c15 c16 c17 c18 i9 i8 i7 i6 i5 i4 i3 i2 i2b"/>
    <route id="Mari-Fray-B4Redon2" edges="g9 g10 g11 g12 g13 g14 g15 g16 c9 c10 c11 c12 c13 c14 c15 c16 c17 c18 i9 i8 i7 i6 i5 i5a"/>
    <route id="Mari-Fray-B4Redon3" edges="g10 g11 g12 g13 g14 g15 g16 c9 c10 c11 c12 c13 c14 c15 c16 c17 c18 i9 i8 i7 i6"/>
    <route id="Mari-Fray-B4Pan1" edges="g5 g6 g7 g8 g9 g10 g11 g12 g13 g14 g15 g16 c9 c10 c11 c12 c13 c14 c15"/>
    <route id="Mari-Fray-B4Pan2" edges="g9 g10 g11 g12 g13 g14 g15 g16 c9 c10 c11 c12 c13 c14 c15"/>
    <route id="Mari-Fray-B4Pan3" edges="g10 g11 g12 g13 g14 g15 g16 c9 c10 c11 c12 c13 c14 c15"/>
    <route id="Mari-Fray-Redon-Termi1" edges="g6 g7 g8 g9 g10 g11 g12 g13 g14 g15 g16 c9 c10 c11 c12 c13 c14 c15 c16 c17 c18 i9 i8 i7 i6 i5 i4 i3 i2 i1 u2 u3 u4 j1 j2 j3 j4 j5 j6 j7 j8 j9 j10 j11 j12 j13 j14 j15 j16 j17"/>
    <route id="Mari-Fray-Redon-Termi2" edges="g9 g10 g11 g12 g13 g14 g15 g16 c9 c10 c11 c12 c13 c14 c15 c16 c17 c18 i9 i8 i7 i6 i5 i4 i3 i2 i1 u2 u3 u4 j1 j2 j3 j4 j5 j6 j7 j8 j9 j10 j11 j12"/>
    <route id="Mari-Fray-Redon-Termi3" edges="g10 g11 g12 g13 g14 g15 g16 c9 c10 c11 c12 c13 c14 c15 c16 c17 c18 i9 i8 i7 i6 i5 i4 i3 i2 i1 u2 u3 u4 j1 j2 j3 j4 j5 j6 j7"/>
    <route id="Obel-Fray-Redon-Panam1" edges="x4b x4a x2e x2d x2c x2b x2a x2 a5 a6 c10 c11 c12 c13 c14 c15 c16 c17 c18 i9 i8 i7 i6 i5 i4 i3 i2 i1 u2 h1 h2 h3 h4 h5 h6 h7 h8 h9 h10 h10a"/>
    <route id="Obel-Fray-Redon-Panam2" edges="x4f x4 y1 a1 a2 a3 a4 a5 a6 c10 c11 c12 c13 c14 c15 c16 c17 c18 i9 i8 i7 i6 i5 i4 i3 i2 i1 u2 h1 h1a"/>
    <route id="Obel-Fray-Redon-Panam3" edges="x3c x2c x2b x1 a4 a5 a6 c10 c11 c12 c13 c14 c15 c16 c17 c18 i9 i8 i7 i6 i5 i4 i3 i2 i1 u2 h1 h2 h3"/>
    <route id="Obel-Fray-Redon-Termi1" edges="x4f x4 y1 a1 a2 a3 a4 a5 a6 c10 c11 c12 c13 c14 c15 c16 c17 c18 i9 i8 i7 i6 i5 i4 i3 i2 i1 u2 u3 u4 j1 j2 j3 j4 j5 j6 j7 j8 j9 j10 j11 j12 j13 j14 j15 j16 j17"/>
    <route id="Obel-Fray-Redon-Termi2" edges="x4 y1 a1 a2 a3 a4 a5 a6 c10 c11 c12 c13 c14 c15 c16 c17 c18 i9 i8 i7 i6 i5 i4 i3 i2 i1 u2 u3 u4 j1 j2 j3 j4 j5 j6 j7 j8 j9 j10 j11 j12"/>
    <route id="Obel-Fray-Redon-Termi3" edges="x3c x2c x2b x2a x2 a5 a6 c10 c11 c12 c13 c14 c15 c16 c17 c18 i9 i8 i7 i6 i5 i4 i3 i2 i1 u2 u3 u4 j1 j2 j3 j4 j5 j6 j7"/>
    <route id="Obel-Fray-B4Redon1" edges="y4 y3 y2 y1 a1 a2 a3 a4 a5 a6 c10 c11 c12 c13 c14 c15 c16 c17 c18 i9 i8 i7 i6 i5 i4 i3 i2 i2b"/>
    <route id="Obel-Fray-B4Redon2" edges="x4a x2e x2d x2c x2b x2a x2 a5 a6 c10 c11 c12 c13 c14 c15 c16 c17 c18 i9 i8 i7 i6 i5 i5a"/>
    <route id="Obel-Fray-B4Redon3" edges="g20d g20c g20b g20a g20a0 a3 a4 a5 a6 c10 c11 c12 c13 c14 c15 c16 c17 c18 i9 i8 i7 i6 i6a"/>
    <route id="Obel-B4Redon1" edges="y2 y1 a1 a2 a3 a4 a5 a6 a7 a8 a9 a10 a11 a12 a13 a14 a15 a16 a17 a18 a18a"/>
    <route id="Obel-B4Redon2" edges="x2c x2b x1 a4 a5 a6 a7 a8 a9 a10 a11 a12 a13 a14 a15"/>
    <route id="Obel-B4Redon3" edges="g20d g20c g20b g20a g20a0 a3 a4 a5 a6 a7 a8 a9 a10 a11 a12 a13"/>
    <route id="Obel-Redon-Yach2" edges="g20d g20c g20b g20a g20a0 a3 a4 a5 a6 a7 a8 a9 a10 a11 a12 a13 a14 a15 a16 a17 a18 a19 a20 a21a e2 e3 e4 e5 e6 e7 e8 e9 c18 c19 c20 c21 c22 c23 c24 c25 c26"/>
    <route id="Obel-Redon-Yach1" edges="x4a x2e x2d x2c x2b x2a x2 a5 a6 a7 a8 a9 a10 a11 a12 a13 a14 a15 a16 a17 a18 a19 a20 a21a e2 e3 e4 e5 e6 e7 e8 e9 c18 c19 c20 c21 c22 c23 c24 c25 c26"/>
    <route id="Obel-Redon-Yach3" edges="g20a g20a0 a3 a4 a5 a6 a7 a8 a9 a10 a11 a12 a13 a14 a15 a16 a17 a18 a19 a20 a21a e2 e3 e4 e5 e6 e7 e8 e9 c18 c19 c20 c21 c22 c23 c24 c25 c26"/>
    <route id="Obel-Redon-Panam1" edges="v3 v2 y4 y3 y2 y1 a1 a2 a3 a4 a5 a6 a7 a8 a9 a10 a11 a12 a13 a14 a15 a16 a17 a18 a19 a20 a21 u1 u2 h1 h2 h3 h4 h5 h6 h7 h8 h9 h10"/>
    <route id="Obel-Redon-Panam3" edges="x3c x2c x2b x2a x2 a5 a6 a7 a8 a9 a10 a11 a12 a13 a14 a15 a16 a17 a18 a19 a20 a21 u1 u2 h1 h1a"/>
    <route id="Obel-Redon-Panam2" edges="g20d g20c g20b g20a g20a0 a3 a4 a5 a6 a7 a8 a9 a10 a11 a12 a13 a14 a15 a16 a17 a18 a19 a20 a21 u1 u2 h1 h2 h3"/>
    <route id="Obel-Redon-Col1" edges="g20b g20a g20a0 a3 a4 a5 a6 a7 a8 a9 a10 a11 a12 a13 a14 a15 a16 a17 a18 a19 a20 a21a e2 e3 e4 e5 e6 e7 e8 e9 e10 e11 e12 e13 e14 e15 e16 e17 e18 e19 e20"/>
    <route id="Obel-Redon-Col2" edges="x2b x2a x2 a5 a6 a7 a8 a9 a10 a11 a12 a13 a14 a15 a16 a17 a18 a19 a20 a21a e2 e3 e4 e5 e6 e7 e8 e9 e10 e11 e12 e13 e13a"/>
    <route id="Obel-Redon-Col3" edges="x4a x4 y1 a1 a2 a3 a4 a5 a6 a7 a8 a9 a10 a11 a12 a13 a14 a15 a16 a17 a18 a19 a20 a21a e2 e3 e4 e5 e6 e7 e8 e9 e10 e11 e12b"/>
    <route id="Obel-Redon-Termi1" edges="v3 v2 y4 y3 y2 y1 a1 a2 a3 a4 a5 a6 a7 a8 a9 a10 a11 a12 a13 a14 a15 a16 a17 a18 a19 a20 a21 u1 u2 u3 u4 j1 j2 j3 j4 j5 j6 j7 j8 j9 j10 j11 j12 j13 j14 j15 j16 j17 j18 j19 j20 j21 j22 j23"/>
    <route id="Obel-Redon-Termi3" edges="x4a x4 y1 a1 a2 a3 a4 a5 a6 a7 a8 a9 a10 a11 a12 a13 a14 a15 a16 a17 a18 a19 a20 a21 u1 u2 u3 u4 j1 j2 j3 j4 j5 j6 j7 j8a j9a j10a"/>
    <route id="Obel-Redon-Termi2" edges="a3 a4 a5 a6 a7 a8 a9 a10 a11 a12 a13 a14 a15 a16 a17 a18 a19 a20 a21 u1 u2 u3 u4 j1 j2 j3 j4 j5 j6 j7 j8 j9 j10 j11 j12 j13 j14 j15 j16 j17 j18 j19 j20 j20a"/>
    <route id="Merc-B4Redon1" edges="c0g c0f c0e c0d c0c c0b c0a c1 c2 c3 c4 c5 c6 c7 c8 c9 a7 a8 a9 a10 a11 a12 a13 a14 a15 a16 a17 a18"/>
    <route id="Merc-B4Redon2" edges="c3c c3b c3a c3 c4 c5 c6 c7 c8 c9 a7 a8 a9 a10 a11 a12 a13 a14"/>
    <route id="Merc-B4Redon3" edges="c5d c5c c5b c5a c5 c6 c7 c8 c9 a7 a8 a9 a10 a11 a12 a13"/>
    <route id="Merc-Redon-Panam1" edges="c0e c0d c0c c0b c0a c1 c2 c3 c4 c5 c6 c7 c8 c9 a7 a8 a9 a10 a11 a12 a13 a14 a15 a16 a17 a18 a19 a20 a21 u1 u2 h1 h2 h3 h4 h5 h6 h7 "/>
    <route id="Merc-Redon-Panam2" edges="c3d c3c c3b c3a c3 c4 c5 c6 c7 c8 c9 a7 a8 a9 a10 a11 a12 a13 a14 a15 a16 a17 a18 a19 a20 a21 u1 u2 h1 h2 h3"/>
    <route id="Merc-Redon-Panam3" edges="c5b c5a c5 c6 c7 c8 c9 a7 a8 a9 a10 a11 a12 a13 a14 a15 a16 a17 a18 a19 a20 a21 u1 u2 h1 h1a"/>
    <route id="Merc-Redon-Termi1" edges="c3c c3b c3a c3 c4 c5 c6 c7 c8 c9 a7 a8 a9 a10 a11 a12 a13 a14 a15 a16 a17 a18 a19 a20 a21 u1 u2 u3 u4 j1 j2 j3 j4 j5 j6 j7 j8 j9 j10 j11 j12 j13 j14 j15 j16 j17"/>
    <route id="Merc-Redon-Termi2" edges="c0c c0b c0a c1 c2 c3 c4 c5 c6 c7 c8 c9 a7 a8 a9 a10 a11 a12 a13 a14 a15 a16 a17 a18 a19 a20 a21 u1 u2 u3 u4 j1 j2 j3 j4 j5 j6 j7 j8 j9 j10 j11 j12"/>
    <route id="Merc-Redon-Termi3" edges="c5b c5a c5 c6 c7 c8 c9 a7 a8 a9 a10 a11 a12 a13 a14 a15 a16 a17 a18 a19 a20 a21 u1 u2 u3 u4 j1 j2 j3 j4 j5 j6 j7"/>
    <route id="Merc-Fray-Termi1" edges="c0g c0f c0e c0d c0c c0b c0a c1 c2 c3 c4 c5 c6 c7 c8 c9 c10 c11 c12 c13 c14 c15 c16 c17 c18 i9 i8 i7 i6 i5 i4 i3 i2 i1 u2 u3 u4 j1 j2 j3 j4 j5 j6 j7 j8 j9 j10 j11 j12 j13 j14 j15 j16 j17"/>
    <route id="Merc-Fray-Termi2" edges="c3d c3c c3b c3a c3 c4 c5 c6 c7 c8 c9 c10 c11 c12 c13 c14 c15 c16 c17 c18 i9 i8 i7 i6 i5 i4 i3 i2 i1 u2 u3 u4 j1 j2 j3 j4 j5 j6 j7 j8 j9 j10 j11 j12"/>
    <route id="Merc-Fray-Termi3" edges="c4 c5 c6 c7 c8 c9 c10 c11 c12 c13 c14 c15 c16 c17 c18 i9 i8 i7 i6 i5 i4 i3 i2 i1 u2 u3 u4 j1 j2 j3 j4 j5 j6 j7"/>
    <route id="Merc-Fray-B4Redon1" edges="c1 c2 c3 c4 c5 c6 c7 c8 c9 c10 c11 c12 c13 c14 c15 c16 c17 c18 i9 i8 i7 i6 i5 i4 i3 "/>
    <route id="Merc-Fray-B4Redon2" edges="c3 c4 c5 c6 c7 c8 c9 c10 c11 c12 c13 c14 c15 c16 c17 c18 i9 i8 i7 i6 i5"/>
    <route id="Merc-Fray-B4Redon3" edges="c5d c5c c5b c5a c5 c6 c7 c8 c9 c10 c11 c12 c13 c14 c15 c16 c17 c18 i9 i8 i7 i6 "/>
    <route id="Merc-Redon-Col1" edges="c0d c0c c0b c0a c1 c2 c3 c4 c5 c6 c7 c8 c9 a7 a8 a9 a10 a11 a12 a13 a14 a15 a16 a17 a18 a19 a20 a21a e2 e3 e4 e5 e6 e7 e8 e9 e10 e11 e12 e13 e14 e15 e16 e17 e18 e19 e20 e21 e22"/>
    <route id="Merc-Redon-Col2" edges="c3b c3a c3 c4 c5 c6 c7 c8 c9 a7 a8 a9 a10 a11 a12 a13 a14 a15 a16 a17 a18 a19 a20 a21a e2 e3 e4 e5 e6 e7 e8 e9 e10 e11 e12 e13 e14 e15 e16 e17 e18 e19 e20 e21"/>
    <route id="Merc-Redon-Col3" edges="c5 c6 c7 c8 c9 a7 a8 a9 a10 a11 a12 a13 a14 a15 a16 a17 a18 a19 a20 a21a e2 e3 e4 e5 e6 e7 e8 e9 e10 e11 e12 e13 e13a"/>
    <route id="Merc-Redon-Yach1" edges="c0 c1 c2 c3 c4 c5 c6 c7 c8 c9 a7 a8 a9 a10 a11 a12 a13 a14 a15 a16 a17 a18 a19 a20 a21a e2 e3 e4 e5 e6 e7 e8 e9 c18 c19 c20 c21 c22 c23 c24 c25 c26"/>
    <route id="Merc-Redon-Yach2" edges="c2 c3 c4 c5 c6 c7 c8 c9 a7 a8 a9 a10 a11 a12 a13 a14 a15 a16 a17 a18 a19 a20 a21a e2 e3 e4 e5 e6 e7 e8 e9 c18 c19 c20 c21 c22 c22a"/>
    <route id="Merc-Redon-Yach3" edges="c3 c4 c5 c6 c7 c8 c9 a7 a8 a9 a10 a11 a12 a13 a14 a15 a16 a17 a18 a19 a20 a21a e2 e3 e4 e5 e6 e7 e8 e9 c18 c19 c20 c21"/>
    <route id="Obel-Fray-B4Pan1" edges="g20d g20c g20b g20a g20a0 a3 a4 a5 a6 c10 c11 c12 c13 c13a"/>
    <route id="Obel-Fray-B4Pan2" edges="x2c x2b x1 a4 a5 a6 c10 c11 c12 c13 c14 c14a"/>
    <route id="Obel-Fray-B4Pan3" edges="a2 a3 a4 a5 a6 c10 c11 c12 c12a"/>
    <route id="Obel-Fray-Yach1" edges="y3 y2 y1 a1 a2 a3 a4 a5 a6 c10 c11 c12 c13 c14 c15 c16 c17 c18 c19 c20 c21 c22 c23 c24 c25 c26"/>
    <route id="Obel-Fray-Yach2" edges="x2b x2a x2 a5 a6 c10 c11 c12 c13 c14 c15 c16 c17 c18 c19 c20 c21 c22 c23 c24 c25 c25a"/>
    <route id="Obel-Fray-Yach3" edges="a3 a4 a5 a6 c10 c11 c12 c13 c14 c15 c16 c17 c18 c19 c20 c20a"/>
    <route id="Obel-Fray-Col1" edges=" x4a x4 y1 a1 a2 a3 a4 a5 a6 c10 c11 c12 c13 c14 c15 c16 c17a e11 e12 e13 e14 e15 e16 e17 e18 e19 e20 e21 e22"/>
    <route id="Obel-Fray-Col2" edges=" x1 a4 a5 a6 c10 c11 c12 c13 c14 c15 c16 c17a e11 e12 e13 e14 e15 e16 e17 e18 e19 e20 e21"/>
    <route id="Obel-Fray-Col3" edges=" x2 a5 a6 c10 c11 c12 c13 c14 c15 c16 c17a e11 e12 e13 e13a"/>
    <route id="Merc-Fray-B4Pan1" edges="c0g c0f c0e c0d c0c c0b c0a c1 c2 c3 c4 c5 c6 c7 c8 c9 c10 c11 c12 c13 c14 c14a"/>
    <route id="Merc-Fray-B4Pan2" edges="c3c c3b c3a c3 c4 c5 c6 c7 c8 c9 c10 c11 c12 c13 c13a"/>
    <route id="Merc-Fray-B4Pan3" edges="c5 c6 c7 c8 c9 c10 c11 c12 c12a"/>
    <route id="Merc-Fray-Yach1" edges="c0d c0c c0b c0a c1 c2 c3 c4 c5 c6 c7 c8 c9 c10 c11 c12 c13 c14 c15 c16 c17 c18 c19 c20 c21 c22 c23 c24 c25 c25a"/>
    <route id="Merc-Fray-Yach2" edges="c0 c1 c2 c3 c4 c5 c6 c7 c8 c9 c10 c11 c12 c13 c14 c15 c16 c17 c18 c19 c20 c21 c22 c22a"/>
    <route id="Merc-Fray-Yach3" edges="c3 c4 c5 c6 c7 c8 c9 c10 c11 c12 c13 c14 c15 c16 c17 c18 c19 c20 c21"/>
    <route id="Merc-Fray-Col1" edges="c0 c1 c2 c3 c4 c5 c6 c7 c8 c9 c10 c11 c12 c13 c14 c15 c16 c17a e11 e12 e13 e14 e15 e16 e17 e18 e19 e20 e21 e22"/>
    <route id="Merc-Fray-Col2" edges="c5b c5a c5 c6 c7 c8 c9 c10 c11 c12 c13 c14 c15 c16 c17a e11 e12 e13 e14 e15 e16 e17 e18 e18a"/>
    <route id="Merc-Fray-Col3" edges="c3 c4 c5 c6 c7 c8 c9 c10 c11 c12 c13 c14 c15 c16 c17a e11 e12b"/>
    <route id="Mari-Fray-Yach1" edges="g4 g5 g6 g7 g8 g9 g10 g11 g12 g13 g14 g15 g16 c9 c10 c11 c12 c13 c14 c15 c16 c17 c18 c19 c20 c21 c22 c23 c24 c25 c26"/>
    <route id="Mari-Fray-Yach2" edges="g7 g8 g9 g10 g11 g12 g13 g14 g15 g16 c9 c10 c11 c12 c13 c14 c15 c16 c17 c18 c19 c20 c21 c22 c22a"/>
    <route id="Mari-Fray-Yach3" edges="g10 g11 g12 g13 g14 g15 g16 c9 c10 c11 c12 c13 c14 c15 c16 c17 c18 c19 c20 c20a"/>
    <route id="Mari-Fray-Col1" edges="g5 g6 g7 g8 g9 g10 g11 g12 g13 g14 g15 g16 c9 c10 c11 c12 c13 c14 c15 c16 c17a e11 e12 e13 e14 e15 e16 e17 e18 e19 e20 e21 e22"/>
    <route id="Mari-Fray-Col2" edges="g8 g9 g10 g11 g12 g13 g14 g15 g16 c9 c10 c11 c12 c13 c14 c15 c16 c17a e11 e12 e13 e14 e15 e16 e17 e18 e18a"/>
    <route id="Mari-Fray-Col3" edges="g9 g10 g11 g12 g13 g14 g15 g16 c9 c10 c11 c12 c13 c14 c15 c16 c17a e11 e12b"/>
    <route id="Panam-Mari-B4Mall1" edges="d13 d12 d11 d10 d9 d8 d7 d6 d5 d4 d3 d2 d1 u4 u5 u6 g1 g2 g3 g4 g5 g6 g7 g8 g9"/>
    <route id="Panam-Mari-B4Mall2" edges="d6 d5 d4 d3 d2 d1 u4 u5 u6 g1 g2 g3 g4 g5 g6 "/>
    <route id="Panam-Mari-B4Mall3" edges="d3 d2 d1 u4 u5 u6 g1 g2 g3"/>
    <route id="Panam-Mari-Obel1" edges="d13 d12 d11 d10 d9 d8 d7 d6 d5 d4 d3 d2 d1 u4 u5 u6 g1 g2 g3 g4 g5 g6 g7 g8 g9 g10 g11 g12 g13 g14 g15 g16 g17 g18 g19 g20 g21 g22 y6 y5 y4 v1 v0 v0b"/>
    <route id="Panam-Mari-Obel3" edges="d8a d8 d7 d6 d5 d4 d3 d2 d1 u4 u5 u6 g1 g2 g3 g4 g5 g6 g7 g8 g9 g10 g11 g12 g13 g14 g15 g16 g17"/>
    <route id="Panam-Mari-Obel2" edges="d3 d2 d1 u4 u5 u6 g1 g2 g3 g4 g5 g6 g7 g8 g9 g10 g11 g12 g13 g14 g15 g16 g17 g18 g19"/>
    <route id="Panam-Mari-Merc1" edges="d13 d12 d11 d10 d9 d8 d7 d6 d5 d4 d3 d2 d1 u4 u5 u6 g1 g2 g3 g4 g5 g6 g7 g8 g9 g10 g11 g12 g13a g14a g15a k1 k2 k3 k4 k5 k6"/>
    <route id="Panam-Mari-Merc2" edges="d10a d10 d9 d8 d7 d6 d5 d4 d3 d2 d1 u4 u5 u6 g1 g2 g3 g4 g5 g6 g7 g8 g9 g10 g11 g12 g13a g14a g15a k1 k2 k3 k4"/>
    <route id="Panam-Mari-Merc3" edges="d3 d2 d1 u4 u5 u6 g1 g2 g3 g4 g5 g6 g7 g8 g9 g10 g11 g12 g13a g14a g15a k1 k2 k3 "/>
    <route id="Panam-Mari-Fray-Col1" edges="d12a d12 d11 d10 d9 d8 d7 d6 d5 d4 d3 d2 d1 u4 u5 u6 g1 g2 g3 g4 g5 g6 g7 g8 g9 g10 g11 g12 g13 g14 g15 g16 c9 c10 c11 c12 c13 c14 c15 c16 c17a e11 e12 e13 e14 e15 e16 e17 e18 e19 e20 e21 e22"/>
    <route id="Panam-Mari-Fray-Col2" edges="d10a d10 d9 d8 d7 d6 d5 d4 d3 d2 d1 u4 u5 u6 g1 g2 g3 g4 g5 g6 g7 g8 g9 g10 g11 g12 g13 g14 g15 g16 c9 c10 c11 c12 c13 c14 c15 c16 c17a e11 e12b"/>
    <route id="Panam-Mari-Fray-Col3" edges="d3 d2 d1 u4 u5 u6 g1 g2 g3 g4 g5 g6 g7 g8 g9 g10 g11 g12 g13 g14 g15 g16 c9 c10 c11 c12 c13 c14 c15 c16 c17a e11"/>
    <route id="Panam-Mari-Fray-Yach1" edges="d8a d8 d7 d6 d5 d4 d3 d2 d1 u4 u5 u6 g1 g2 g3 g4 g5 g6 g7 g8 g9 g10 g11 g12 g13 g14 g15 g16 c9 c10 c11 c12 c13 c14 c15 c16 c17 c18 c19 c20 c21 c22 c23 c24 c25 c26"/>
    <route id="Panam-Mari-Fray-Yach2" edges="d12 d11 d10 d9 d8 d7 d6 d5 d4 d3 d2 d1 u4 u5 u6 g1 g2 g3 g4 g5 g6 g7 g8 g9 g10 g11 g12 g13 g14 g15 g16 c9 c10 c11 c12 c13 c14 c15 c16 c17 c18 c19 c20 c21"/>
    <route id="Panam-Mari-Fray-Yach3" edges="d7a d7 d6 d5 d4 d3 d2 d1 u4 u5 u6 g1 g2 g3 g4 g5 g6 g7 g8 g9 g10 g11 g12 g13 g14 g15 g16 c9 c10 c11 c12 c13 c14 c15 c16 c17 c18 c19 c20 c21"/>
    <route id="Panam-Mari-Fray-B4Pan1" edges="d8a d8 d7 d6 d5 d4 d3 d2 d1 u4 u5 u6 g1 g2 g3 g4 g5 g6 g7 g8 g9 g10 g11 g12 g13 g14 g15 g16 c9 c10 c11 c12 c13 c14 c15"/>
    <route id="Panam-Mari-Fray-B4Pan2" edges="d5 d4 d3 d2 d1 u4 u5 u6 g1 g2 g3 g4 g5 g6 g7 g8 g9 g10 g11 g12 g13 g14 g15 g16 c9 c10 c11 c12 c13"/>
    <route id="Panam-Mari-Fray-B4Pan3" edges="d3 d2 d1 u4 u5 u6 g1 g2 g3 g4 g5 g6 g7 g8 g9 g10 g11 g12 g13 g14 g15 g16 c9 c10 c11 c12"/>
    <route id="Termi-Mari-B4Pan1" edges="j20b b19a b18 b17 b16 b15 b14 b13 b12 b11 b10 b9 b8 b7 b6 b5 b4 b3 b2 b1 u6 g1 g2 g3 g4 g5 g6 g7 g8 g9 g10 g11 g12 g13 g14 g15 g16 c9 c10 c11 c12 c13 c14 c15"/>
    <route id="Termi-Mari-B4Pan2" edges="b14 b13 b12 b11 b10 b9 b8 b7 b6 b5 b4 b3 b2 b1 u6 g1 g2 g3 g4 g5 g6 g7 g8 g9 g10 g11 g12 g13 g14 g15 g16 c9 c10 c11 c12 c13"/>
    <route id="Termi-Mari-B4Pan3" edges="b13b b12b b11a b10 b9 b8 b7 b6 b5 b4 b3 b2 b1 u6 g1 g2 g3 g4 g5 g6 g7 g8 g9 g10 g11 g12 g13 g14 g15 g16 c9 c10 c11 c12"/>
    <route id="Termi-Mari-Yach1" edges="j20b b19a b18 b17 b16 b15 b14 b13 b12 b11 b10 b9 b8 b7 b6 b5 b4 b3 b2 b1 u6 g1 g2 g3 g4 g5 g6 g7 g8 g9 g10 g11 g12 g13 g14 g15 g16 c9 c10 c11 c12 c13 c14 c15 c16 c17 c18 c19 c20 c21 c22 c23 c24 c25 c26"/>
    <route id="Termi-Mari-Yach2" edges="b14 b13 b12 b11 b10 b9 b8 b7 b6 b5 b4 b3 b2 b1 u6 g1 g2 g3 g4 g5 g6 g7 g8 g9 g10 g11 g12 g13 g14 g15 g16 c9 c10 c11 c12 c13 c14 c15 c16 c17 c18 c19 c20 c21 c22 c23 c24"/>
    <route id="Termi-Mari-Yach3" edges="b13b b12b b11a b10 b9 b8 b7 b6 b5 b4 b3 b2 b1 u6 g1 g2 g3 g4 g5 g6 g7 g8 g9 g10 g11 g12 g13 g14 g15 g16 c9 c10 c11 c12 c13 c14 c15 c16 c17 c18 c19 c20 c21"/>
    <route id="Termi-Mari-Col1" edges="j20b b19a b18 b17 b16 b15 b14 b13 b12 b11 b10 b9 b8 b7 b6 b5 b4 b3 b2 b1 u6 g1 g2 g3 g4 g5 g6 g7 g8 g9 g10 g11 g12 g13 g14 g15 g16 c9 c10 c11 c12 c13 c14 c15 c16 c17a e11 e12 e13 e14 e15 e16 e17 e18 e19 e20 e21 e22"/>
    <route id="Termi-Mari-Col2" edges="b13 b12 b11 b10 b9 b8 b7 b6 b5 b4 b3 b2 b1 u6 g1 g2 g3 g4 g5 g6 g7 g8 g9 g10 g11 g12 g13 g14 g15 g16 c9 c10 c11 c12 c13 c14 c15 c16 c17a e11 e12 e13 e14 e15 e16 e17 e18"/>
    <route id="Termi-Mari-Col3" edges="b10 b9 b8 b7 b6 b5 b4 b3 b2 b1 u6 g1 g2 g3 g4 g5 g6 g7 g8 g9 g10 g11 g12 g13 g14 g15 g16 c9 c10 c11 c12 c13 c14 c15 c16 c17a e11 e12"/>
    <route id="Termi-Mari-Merc1" edges="j20b b19a b18 b17 b16 b15 b14 b13 b12 b11 b10 b9 b8 b7 b6 b5 b4 b3 b2 b1 u6 g1 g2 g3 g4 g5 g6 g7 g8 g9 g10 g11 g12 g13a g14a g15a k1 k2 k3 k4 k5 k6 k7"/>
    <route id="Termi-Mari-Merc2" edges="b13 b12 b11 b10 b9 b8 b7 b6 b5 b4 b3 b2 b1 u6 g1 g2 g3 g4 g5 g6 g7 g8 g9 g10 g11 g12 g13a g14a g15a k1 k2 k3 k4"/>
    <route id="Termi-Mari-Merc3" edges="b9 b8 b7 b6 b5 b4 b3 b2 b1 u6 g1 g2 g3 g4 g5 g6 g7 g8 g9 g10 g11 g12 g13a g14a g15a k1 k2 k3"/>
    <route id="Termi-Mari-Obel1" edges="j20b b19a b18 b17 b16 b15 b14 b13 b12 b11 b10 b9 b8 b7 b6 b5 b4 b3 b2 b1 u6 g1 g2 g3 g4 g5 g6 g7 g8 g9 g10 g11 g12 g13 g14 g15 g16 g17 g18 g19 g20 g21"/>
    <route id="Termi-Mari-Obel2" edges="b13 b12 b11 b10 b9 b8 b7 b6 b5 b4 b3 b2 b1 u6 g1 g2 g3 g4 g5 g6 g7 g8 g9 g10 g11 g12 g13 g14 g15 g16 g17 g18 g19 g20"/>
    <route id="Termi-Mari-Obel3" edges="b10 b9 b8 b7 b6 b5 b4 b3 b2 b1 u6 g1 g2 g3 g4 g5 g6 g7 g8 g9 g10 g11 g12 g13 g14 g15 g16 g17 g18"/>
    <route id="Termi-B4Pan1" edges="j20b b19a b18 b17 b16 b15 b14 b13 b12 b11 b10 b9 b8 b7 b6 b5 b4 b3 b2 b1 u6 u7 e1 e2 e3 e4 e5"/>
    <route id="Termi-B4Pan2" edges="b13b b12b b11a b10 b9 b8 b7 b6 b5 b4 b3 b2 b1 u6 u7 e1 e2 e2a"/>
    <route id="Termi-B4Pan3" edges="b4 b3 b2 b1 u6 u7 e1 e2 e3 e4"/>
    <route id="Termi-Yach1" edges="b22 b21 b20 b19 b18 b17 b16 b15 b14 b13 b12 b11 b10 b9 b8 b7 b6 b5 b4 b3 b2 b1 u6 u7 e1 e2 e3 e4 e5 e6 e7 e8 e9 c18 c19 c20 c21 c22 c23 c24 c25 c26"/>
    <route id="Termi-Yach2" edges="b9a b2c b2d b7 b6 b5 b4 b3 b2 b1 u6 u7 e1 e2 e3 e4 e5 e6 e7 e8 e9 c18 c19 c20 c21 c22 c23 c24 c25 c26"/>
    <route id="Termi-Yach3" edges="b4 b3 b2 b1 u6 u7 e1 e2 e3 e4 e5 e6 e7 e8 e9 c18 c19 c20 c20a"/>
    <route id="Termi-Col1" edges="b22 b21 b20 b19 b18 b17 b16 b15 b14 b13 b12 b11 b10 b9 b8 b7 b6 b5 b4 b3 b2 b1 u6 u7 e1 e2 e3 e4 e5 e6 e7 e8 e9 e10 e11 e12 e13 e14 e15 e16 e17 e18 e19 e20"/>
    <route id="Termi-Col3" edges="b9a b2c b2d b7 b6 b5 b4 b3 b2 b1 u6 u7 e1 e2 e3 e4 e5 e6 e7 e8 e9 e10 e11 e12b"/>
    <route id="Termi-Col2" edges="b13b b12b b11a b10 b9 b8 b7 b6 b5 b4 b3 b2 b1 u6 u7 e1 e2 e3 e4 e5 e6 e7 e8 e9 e10 e11"/>
    <route id="Termi-Pan-Obel1" edges="b22 b21 b20 b19 b18 b17 b16 b15 b14 b13 b12 b11 b10 b9 b8 b7 b6 b5 b4 b3 b2 b1 u6 u7 e1 e2 e3 e4 e5 e6 e7a f11 f12 f13 f14 f15 f16 f17 f18 f19 f20 f21 g15 g16 g17 g18 g19 g20 g21 g22 y6 y5 y4 v1 v0"/>
    <route id="Termi-Pan-Obel2" edges="b3b b3a b2b b2c b2d b7 b6 b5 b4 b3 b2 b1 u6 u7 e1 e2 e3 e4 e5 e6 e7a f11 f12 f13 f14 f15 f16 f17 f18 f19 f20 f21 g15 g16 g17 g18 g19 g19a"/>
    <route id="Termi-Pan-Obel3" edges="b13b b12b b11a b10 b9 b8 b7 b6 b5 b4 b3 b2 b1 u6 u7 e1 e2 e3 e4 e5 e6 e7a f11 f12 f13 f14 f15 f16 f17 f18 f19 f20 f21 g15 g16 g17 g18"/>
    <route id="Termi-Pan-Merc3" edges="b4 b3 b2 b1 u6 u7 e1 e2 e3 e4 e5 e6 e7a f11 f12 f13 f14 f15 f16 f17 f18 f19 f20 f21 f22 f23 k1 k2 k3 k4 k5 k6 k7"/>
    <route id="Termi-Pan-Merc1" edges="b22 b21 b20 b19 b18 b17 b16 b15 b14 b13 b12 b11 b10 b9 b8 b7 b6 b5 b4 b3 b2 b1 u6 u7 e1 e2 e3 e4 e5 e6 e7a f11 f12 f13 f14 f15 f16 f17 f18 f19 f20 f21 f22 f23 k1 k2 k3 k4 k5 k6"/>
    <route id="Termi-Pan-Merc2" edges="b3b b3a b2b b2c b2d b7 b6 b5 b4 b3 b2 b1 u6 u7 e1 e2 e3 e4 e5 e6 e7a f11 f12 f13 f14 f15 f16 f17 f18 f19 f20 f21 f22 f23 k1 k2 k3 k4"/>
    <route id="Termi-Panam2" edges="b13b b12b b11a b10 b9 b8 b7 b6 b5 b4 b3 b2 b1 u6 u7 u1 u2 h1 h1a "/>
    <route id="Termi-Panam1" edges="b22 b21 b20 b19 b18 b17 b16 b15 b14 b13 b12 b11 b10 b9 b8 b7 b6 b5 b4 b3 b2 b1 u6 u7 u1 u2 h1 h2 h3 h4 h5 h6 h7 h8 h9 h10 h10a"/>
    <route id="Termi-Panam3" edges="b4 b3 b2 b1 u6 u7 u1 u2 h1 h2 h3 h4 h5 h5a"/>
    <route id="Panam-Col1" edges="d13 d12 d11 d10 d9 d8 d7 d6 d5 d4 d3 d2 d1 u4 u5 u6 u7 e1 e2 e3 e4 e5 e6 e7 e8 e9 e10 e11 e12 e13 e14 e15 e16 e17 e18 e19 e20 e21 e22"/>
    <route id="Panam-Col3" edges="d3 d2 d1 u4 u5 u6 u7 e1 e2 e3 e4 e5 e6 e7 e8 e9 e10 e11 e12b"/>
    <route id="Panam-Col2" edges="d10a d10 d9 d8 d7 d6 d5 d4 d3 d2 d1 u4 u5 u6 u7 e1 e2 e3 e4 e5 e6 e7 e8 e9 e10 e11"/>
    <route id="Panam-Yach1" edges="d13 d12 d11 d10 d9 d8 d7 d6 d5 d4 d3 d2 d1 u4 u5 u6 u7 e1 e2 e3 e4 e5 e6 e7 e8 e9 c18 c19 c20 c21 c22 c23 c24 c25 c25a"/>
    <route id="Panam-Yach2" edges="d7a d7 d6 d5 d4 d3 d2 d1 u4 u5 u6 u7 e1 e2 e3 e4 e5 e6 e7 e8 e9 c18 c19 c20 c21"/>
    <route id="Panam-Yach3" edges="d3 d2 d1 u4 u5 u6 u7 e1 e2 e3 e4 e5 e6 e7 e8 e9 c18 c19 c20 c20a"/>
    <route id="Panam-B4Pan1" edges="d13 d12 d11 d10 d9 d8 d7 d6 d5 d4 d3 d2 d1 u4 u5 u6 u7 e1 e2 e3 e4 e5 e6b"/>
    <route id="Panam-B4Pan2" edges="d7 d6 d5 d4 d3 d2 d1 u4 u5 u6 u7 e1 e2 e3 e4b"/>
    <route id="Panam-B4Pan3" edges="d3 d2 d1 u4 u5 u6 u7 e1 e2 e2a"/>
    <route id="Panam-Termi1" edges="d8 d7 d6 d5 d4 d3 d2 d1 u4 j1 j2 j3 j4 j5 j6 j7 j8 j9 j10 j11 j12 j13 j14 j15 j16 j17"/>
    <route id="Panam-Termi2" edges="d5 d4 d3 d2 d1 u4 j1 j2 j3 j4 j5 j6 j7 j8 j9 j10 j11 j12 "/>
    <route id="Panam-Termi3" edges="d3 d2 d1 u4 j1 j2 j3 j4 j5 j6 j7"/>
    <route id="Panam-Pan-Obel1" edges="d12 d11 d10 d9 d8 d7 d6 d5 d4 d3 d2 d1 u4 u5 u6 u7 e1 e2 e3 e4 e5 e6 e7a f11 f12 f13 f14 f15 f16 f17 f18 f19 f20 f21 g15 g16 g17 g18 g19 g20 g21 g22 y6 y5 y4 v1 v0"/>
    <route id="Panam-Pan-Obel2" edges="d5 d4 d3 d2 d1 u4 u5 u6 u7 e1 e2 e3 e4 e5 e6 e7a f11 f12 f13 f14 f15 f16 f17 f18 f19 f20 f21 g15 g16 g17 g18"/>
    <route id="Panam-Pan-Obel3" edges="d3 d2 d1 u4 u5 u6 u7 e1 e2 e3 e4 e5 e6 e7a f11 f12 f13 f14 f15 f16 f17 f18 f19 f20 f21 g15 g16 g17 g18 g19 g20 g21 g22 y6 y6a"/>
    <route id="Panam-Pan-B4Mall1" edges="d13 d12 d11 d10 d9 d8 d7 d6 d5 d4 d3 d2 d1 u4 u5 u6 u7 e1 e2 e3 e4 e5 e6 e7a f11 f12 f13 f14 f15 f16 f17 "/>
    <route id="Panam-Pan-B4Mall2" edges="d9 d8 d7 d6 d5 d4 d3 d2 d1 u4 u5 u6 u7 e1 e2 e3 e4 e5 e6 e7a f11 f12 f13 f14"/>
    <route id="Panam-Pan-B4Mall3" edges="d3 d2 d1 u4 u5 u6 u7 e1 e2 e3 e4 e5 e6 e7a f11 f12 "/>
    <route id="Panam-Pan-Merc1" edges="d13 d12 d11 d10 d9 d8 d7 d6 d5 d4 d3 d2 d1 u4 u5 u6 u7 e1 e2 e3 e4 e5 e6 e7a f11 f12 f13 f14 f15 f16 f17 f18 f19 f20 f21 f22 f23 k1 k2 k3 k4 k5 k6 k7"/>
    <route id="Panam-Pan-Merc2" edges="d7a d7 d6 d5 d4 d3 d2 d1 u4 u5 u6 u7 e1 e2 e3 e4 e5 e6 e7a f11 f12 f13 f14 f15 f16 f17 f18 f19 f20 f21 f22 f23 k1 k2 k3 k4 k5"/>
    <route id="Panam-Pan-Merc3" edges="d3 d2 d1 u4 u5 u6 u7 e1 e2 e3 e4 e5 e6 e7a f11 f12 f13 f14 f15 f16 f17 f18 f19 f20 f21 f22 f23 k1 k2 k3"/>
    <route id="Yach-B4Mall1" edges="f2 f3 f4 f5 f6 f7 f8 f9 f10 f11 f12 f13 f14 f15 f16 f17"/>
    <route id="Yach-B4Mall2" edges="f4 f5 f6 f7 f8 f9 f10 f11 f12 f13 f14 f15"/>
    <route id="Yach-B4Mall3" edges="f7 f8 f9 f10 f11 f12 f13"/>
    <route id="Yach-Pan-B4Redon1" edges="f2 f3 f4 f5 f6 f7 f8a i6 i5 i4 i3 i2"/>
    <route id="Yach-Pan-B4Redon2" edges="f3 f4 f5 f6 f7 f8a i6 i5 i4 i3"/>
    <route id="Yach-Pan-B4Redon3" edges="f4 f5 f6 f7 f8a i6 i5"/>
    <route id="Yach-Redon-Panam1" edges="f2 f3 f4 f5 f6 f7 f8a i6 i5 i4 i3 i2 i1 u2 h1 h2 h3 h4 h5 h6 h7 h8 h9 h10"/>
    <route id="Yach-Redon-Panam2" edges="f4 f5 f6 f7 f8a i6 i5 i4 i3 i2 i1 u2 h1 h2 h3 h4 h5 h6 h7"/>
    <route id="Yach-Redon-Panam3" edges="f6 f7 f8a i6 i5 i4 i3 i2 i1 u2 h1 h2 h3 h4"/>
    <route id="Yach-Redon-Termi1" edges="f1 f2 f3 f4 f5 f6 f7 f8a i6 i5 i4 i3 i2 i1 u2 u3 u4 j1 j2 j3 j4 j5 j6 j7 j8 j9 j10 j11 j12 j13 j14 j15 j16 j17"/>